MODEL 1
REMARK VINA RESULT:    -5.251      0.000      0.000
REMARK INTER + INTRA:         -10.304
REMARK INTER:                 -10.009
REMARK INTRA:                  -0.296
REMARK UNBOUND:                -0.296
REMARK SMILES [H]/N=C(\N)c1ccc(CNC(=O)[C@@H]2CCCN2C(=O)CNC2CCCCCCC2)cc1
REMARK SMILES IDX 18 1 19 2 20 3 21 4 22 6 23 7 24 8 29 10 28 11 27 12 26 13
REMARK SMILES IDX 25 14 17 16 13 17 16 18 14 19 15 20 11 21 10 22 12 23 9 25
REMARK SMILES IDX 8 26 30 27 7 28 31 29 6 30 5 31 3 32 4 33 2 36 1 37
REMARK H PARENT 21 5 10 24 4 34 4 35
REMARK Flexibility Score:  112.900
ROOT
ATOM      1  C   UNL     1      18.144  -9.053  14.117  1.00  0.00     0.237 C 
ATOM      2  O   UNL     1      18.411  -7.888  14.321  1.00  0.00    -0.273 OA
ENDROOT
BRANCH   1   3
ATOM      3  C   UNL     1      19.233 -10.021  13.735  1.00  0.00     0.182 C 
BRANCH   3   4
ATOM      4  N   UNL     1      19.508  -9.907  12.297  1.00  0.00    -0.306 NA
ATOM      5  H   UNL     1      19.053  -9.094  11.906  1.00  0.00     0.123 HD
BRANCH   4   6
ATOM      6  C   UNL     1      19.107 -11.128  11.586  1.00  0.00     0.054 C 
BRANCH   6   7
ATOM      7  C   UNL     1      20.046 -11.358  10.400  1.00  0.00     0.019 C 
BRANCH   7   8
ATOM      8  C   UNL     1      20.371 -12.849  10.289  1.00  0.00     0.002 CG0
ATOM      9  G   UNL     1      19.417 -13.505   9.289  1.00  0.00     0.000 G0
ENDBRANCH   7   8
ENDBRANCH   6   7
BRANCH   6  10
ATOM     10  C   UNL     1      17.672 -10.975  11.078  1.00  0.00     0.019 C 
BRANCH  10  11
ATOM     11  C   UNL     1      16.939 -12.311  11.213  1.00  0.00     0.002 C 
BRANCH  11  12
ATOM     12  C   UNL     1      17.036 -13.081   9.894  1.00  0.00     0.000 C 
BRANCH  12  13
ATOM     13  C   UNL     1      18.183 -14.090   9.976  1.00  0.00     0.000 C 
BRANCH  13  14
ATOM     14  C   UNL     1      19.412 -13.527   9.259  1.00  0.00     0.000 CG0
ATOM     15  G   UNL     1      20.335 -12.859  10.279  1.00  0.00     0.000 G0
ENDBRANCH  13  14
ENDBRANCH  12  13
ENDBRANCH  11  12
ENDBRANCH  10  11
ENDBRANCH   6  10
ENDBRANCH   4   6
ENDBRANCH   3   4
ENDBRANCH   1   3
BRANCH   1  16
ATOM     16  N   UNL     1      16.871  -9.482  14.233  1.00  0.00    -0.330 N 
ATOM     17  C   UNL     1      15.693  -8.858  13.602  1.00  0.00     0.174 C 
ATOM     18  C   UNL     1      16.427 -10.650  15.008  1.00  0.00     0.120 C 
ATOM     19  C   UNL     1      14.496  -9.285  14.488  1.00  0.00     0.037 C 
ATOM     20  C   UNL     1      14.893 -10.736  14.869  1.00  0.00     0.024 C 
BRANCH  17  21
ATOM     21  C   UNL     1      15.833  -7.358  13.597  1.00  0.00     0.243 C 
ATOM     22  N   UNL     1      16.239  -6.722  12.480  1.00  0.00    -0.350 N 
ATOM     23  O   UNL     1      15.584  -6.722  14.600  1.00  0.00    -0.273 OA
ATOM     24  H   UNL     1      16.439  -7.230  11.678  1.00  0.00     0.163 HD
BRANCH  22  25
ATOM     25  C   UNL     1      16.381  -5.265  12.478  1.00  0.00     0.151 C 
BRANCH  25  26
ATOM     26  C   UNL     1      16.989  -4.821  11.172  1.00  0.00    -0.029 A 
ATOM     27  C   UNL     1      16.330  -3.894  10.385  1.00  0.00     0.006 A 
ATOM     28  C   UNL     1      18.207  -5.339  10.767  1.00  0.00     0.006 A 
ATOM     29  C   UNL     1      16.881  -3.484   9.188  1.00  0.00     0.012 A 
ATOM     30  C   UNL     1      18.765  -4.942   9.569  1.00  0.00     0.012 A 
ATOM     31  C   UNL     1      18.105  -4.007   8.772  1.00  0.00     0.016 A 
BRANCH  31  32
ATOM     32  C   UNL     1      18.702  -3.572   7.488  1.00  0.00     0.122 C 
ATOM     33  N   UNL     1      17.898  -3.366   6.389  1.00  0.00    -0.384 N 
ATOM     34  H   UNL     1      16.940  -3.506   6.456  1.00  0.00     0.158 HD
ATOM     35  H   UNL     1      18.290  -3.081   5.548  1.00  0.00     0.158 HD
BRANCH  32  36
ATOM     36  N   UNL     1      19.988  -3.384   7.400  1.00  0.00    -0.284 NA
ATOM     37  H   UNL     1      20.404  -3.279   6.529  1.00  0.00     0.189 HD
ENDBRANCH  32  36
ENDBRANCH  31  32
ENDBRANCH  25  26
ENDBRANCH  22  25
ENDBRANCH  17  21
ENDBRANCH   1  16
TORSDOF 9
ENDMDL
MODEL 2
REMARK VINA RESULT:    -4.904      1.563      2.155
REMARK INTER + INTRA:          -9.644
REMARK INTER:                  -9.278
REMARK INTRA:                  -0.366
REMARK UNBOUND:                -0.296
REMARK SMILES [H]/N=C(\N)c1ccc(CNC(=O)[C@@H]2CCCN2C(=O)CNC2CCCCCCC2)cc1
REMARK SMILES IDX 18 1 19 2 20 3 21 4 22 6 23 7 24 8 29 10 28 11 27 12 26 13
REMARK SMILES IDX 25 14 17 16 13 17 16 18 14 19 15 20 11 21 10 22 12 23 9 25
REMARK SMILES IDX 8 26 30 27 7 28 31 29 6 30 5 31 3 32 4 33 2 36 1 37
REMARK H PARENT 21 5 10 24 4 34 4 35
REMARK Flexibility Score:  112.900
ROOT
ATOM      1  C   UNL     1      17.463  -9.294  12.800  1.00  0.00     0.237 C 
ATOM      2  O   UNL     1      17.500  -8.531  11.859  1.00  0.00    -0.273 OA
ENDROOT
BRANCH   1   3
ATOM      3  C   UNL     1      18.665 -10.141  13.131  1.00  0.00     0.182 C 
BRANCH   3   4
ATOM      4  N   UNL     1      18.598 -11.402  12.381  1.00  0.00    -0.306 NA
ATOM      5  H   UNL     1      18.450 -12.184  13.003  1.00  0.00     0.123 HD
BRANCH   4   6
ATOM      6  C   UNL     1      19.806 -11.596  11.569  1.00  0.00     0.054 C 
BRANCH   6   7
ATOM      7  C   UNL     1      20.797 -10.466  11.850  1.00  0.00     0.019 C 
BRANCH   7   8
ATOM      8  C   UNL     1      22.220 -11.028  11.870  1.00  0.00     0.002 CG0
ATOM      9  G   UNL     1      22.852 -10.863  10.487  1.00  0.00     0.000 G0
ENDBRANCH   7   8
ENDBRANCH   6   7
BRANCH   6  10
ATOM     10  C   UNL     1      19.430 -11.588  10.086  1.00  0.00     0.019 C 
BRANCH  10  11
ATOM     11  C   UNL     1      20.261 -12.637   9.344  1.00  0.00     0.002 C 
BRANCH  11  12
ATOM     12  C   UNL     1      21.482 -11.966   8.712  1.00  0.00     0.000 C 
BRANCH  12  13
ATOM     13  C   UNL     1      22.687 -12.122   9.642  1.00  0.00     0.000 C 
BRANCH  13  14
ATOM     14  C   UNL     1      22.864 -10.847  10.468  1.00  0.00     0.000 CG0
ATOM     15  G   UNL     1      22.238 -11.043  11.850  1.00  0.00     0.000 G0
ENDBRANCH  13  14
ENDBRANCH  12  13
ENDBRANCH  11  12
ENDBRANCH  10  11
ENDBRANCH   6  10
ENDBRANCH   4   6
ENDBRANCH   3   4
ENDBRANCH   1   3
BRANCH   1  16
ATOM     16  N   UNL     1      16.347  -9.386  13.550  1.00  0.00    -0.330 N 
ATOM     17  C   UNL     1      15.301  -8.353  13.663  1.00  0.00     0.174 C 
ATOM     18  C   UNL     1      15.971 -10.533  14.389  1.00  0.00     0.120 C 
ATOM     19  C   UNL     1      14.619  -8.628  15.027  1.00  0.00     0.037 C 
ATOM     20  C   UNL     1      14.635 -10.179  15.077  1.00  0.00     0.024 C 
BRANCH  17  21
ATOM     21  C   UNL     1      15.917  -6.979  13.652  1.00  0.00     0.243 C 
ATOM     22  N   UNL     1      15.855  -6.221  12.540  1.00  0.00    -0.350 N 
ATOM     23  O   UNL     1      16.473  -6.555  14.644  1.00  0.00    -0.273 OA
ATOM     24  H   UNL     1      15.410  -6.559  11.746  1.00  0.00     0.163 HD
BRANCH  22  25
ATOM     25  C   UNL     1      16.459  -4.887  12.527  1.00  0.00     0.151 C 
BRANCH  25  26
ATOM     26  C   UNL     1      16.991  -4.589  11.149  1.00  0.00    -0.029 A 
ATOM     27  C   UNL     1      16.266  -3.782  10.290  1.00  0.00     0.006 A 
ATOM     28  C   UNL     1      18.205  -5.118  10.749  1.00  0.00     0.006 A 
ATOM     29  C   UNL     1      16.746  -3.506   9.027  1.00  0.00     0.012 A 
ATOM     30  C   UNL     1      18.693  -4.854   9.486  1.00  0.00     0.012 A 
ATOM     31  C   UNL     1      17.966  -4.041   8.616  1.00  0.00     0.016 A 
BRANCH  31  32
ATOM     32  C   UNL     1      18.489  -3.749   7.261  1.00  0.00     0.122 C 
ATOM     33  N   UNL     1      17.725  -3.029   6.369  1.00  0.00    -0.384 N 
ATOM     34  H   UNL     1      16.845  -2.713   6.628  1.00  0.00     0.158 HD
ATOM     35  H   UNL     1      18.068  -2.838   5.482  1.00  0.00     0.158 HD
BRANCH  32  36
ATOM     36  N   UNL     1      19.670  -4.173   6.914  1.00  0.00    -0.284 NA
ATOM     37  H   UNL     1      20.038  -3.929   6.050  1.00  0.00     0.189 HD
ENDBRANCH  32  36
ENDBRANCH  31  32
ENDBRANCH  25  26
ENDBRANCH  22  25
ENDBRANCH  17  21
ENDBRANCH   1  16
TORSDOF 9
ENDMDL
MODEL 3
REMARK VINA RESULT:    -4.373      1.484      2.334
REMARK INTER + INTRA:          -8.631
REMARK INTER:                  -8.045
REMARK INTRA:                  -0.585
REMARK UNBOUND:                -0.296
REMARK SMILES [H]/N=C(\N)c1ccc(CNC(=O)[C@@H]2CCCN2C(=O)CNC2CCCCCCC2)cc1
REMARK SMILES IDX 18 1 19 2 20 3 21 4 22 6 23 7 24 8 29 10 28 11 27 12 26 13
REMARK SMILES IDX 25 14 17 16 13 17 16 18 14 19 15 20 11 21 10 22 12 23 9 25
REMARK SMILES IDX 8 26 30 27 7 28 31 29 6 30 5 31 3 32 4 33 2 36 1 37
REMARK H PARENT 21 5 10 24 4 34 4 35
REMARK Flexibility Score:  112.900
ROOT
ATOM      1  C   UNL     1      17.765 -10.061  12.500  1.00  0.00     0.237 C 
ATOM      2  O   UNL     1      17.615  -9.478  11.447  1.00  0.00    -0.273 OA
ENDROOT
BRANCH   1   3
ATOM      3  C   UNL     1      19.138 -10.518  12.919  1.00  0.00     0.182 C 
BRANCH   3   4
ATOM      4  N   UNL     1      20.140  -9.974  11.993  1.00  0.00    -0.306 NA
ATOM      5  H   UNL     1      19.713  -9.344  11.330  1.00  0.00     0.123 HD
BRANCH   4   6
ATOM      6  C   UNL     1      20.861 -11.053  11.305  1.00  0.00     0.054 C 
BRANCH   6   7
ATOM      7  C   UNL     1      20.121 -11.421  10.018  1.00  0.00     0.019 C 
BRANCH   7   8
ATOM      8  C   UNL     1      21.135 -11.659   8.896  1.00  0.00     0.002 CG0
ATOM      9  G   UNL     1      21.399 -13.159   8.758  1.00  0.00     0.000 G0
ENDBRANCH   7   8
ENDBRANCH   6   7
BRANCH   6  10
ATOM     10  C   UNL     1      20.939 -12.278  12.218  1.00  0.00     0.019 C 
BRANCH  10  11
ATOM     11  C   UNL     1      22.281 -12.982  12.013  1.00  0.00     0.002 C 
BRANCH  11  12
ATOM     12  C   UNL     1      22.124 -14.085  10.964  1.00  0.00     0.000 C 
BRANCH  12  13
ATOM     13  C   UNL     1      22.621 -13.574   9.610  1.00  0.00     0.000 C 
BRANCH  13  14
ATOM     14  C   UNL     1      21.424 -13.182   8.741  1.00  0.00     0.000 CG0
ATOM     15  G   UNL     1      21.137 -11.690   8.911  1.00  0.00     0.000 G0
ENDBRANCH  13  14
ENDBRANCH  12  13
ENDBRANCH  11  12
ENDBRANCH  10  11
ENDBRANCH   6  10
ENDBRANCH   4   6
ENDBRANCH   3   4
ENDBRANCH   1   3
BRANCH   1  16
ATOM     16  N   UNL     1      16.703 -10.298  13.295  1.00  0.00    -0.330 N 
ATOM     17  C   UNL     1      15.645  -9.326  13.629  1.00  0.00     0.174 C 
ATOM     18  C   UNL     1      16.407 -11.569  13.973  1.00  0.00     0.120 C 
ATOM     19  C   UNL     1      15.061  -9.824  14.975  1.00  0.00     0.037 C 
ATOM     20  C   UNL     1      15.113 -11.363  14.788  1.00  0.00     0.024 C 
BRANCH  17  21
ATOM     21  C   UNL     1      16.230  -7.947  13.788  1.00  0.00     0.243 C 
ATOM     22  N   UNL     1      15.920  -6.978  12.905  1.00  0.00    -0.350 N 
ATOM     23  O   UNL     1      16.984  -7.711  14.709  1.00  0.00    -0.273 OA
ATOM     24  H   UNL     1      15.318  -7.167  12.168  1.00  0.00     0.163 HD
BRANCH  22  25
ATOM     25  C   UNL     1      16.494  -5.639  13.057  1.00  0.00     0.151 C 
BRANCH  25  26
ATOM     26  C   UNL     1      16.960  -5.137  11.714  1.00  0.00    -0.029 A 
ATOM     27  C   UNL     1      18.099  -5.668  11.137  1.00  0.00     0.006 A 
ATOM     28  C   UNL     1      16.243  -4.149  11.061  1.00  0.00     0.006 A 
ATOM     29  C   UNL     1      18.532  -5.212   9.909  1.00  0.00     0.012 A 
ATOM     30  C   UNL     1      16.670  -3.681   9.834  1.00  0.00     0.012 A 
ATOM     31  C   UNL     1      17.817  -4.214   9.248  1.00  0.00     0.016 A 
BRANCH  31  32
ATOM     32  C   UNL     1      18.275  -3.720   7.929  1.00  0.00     0.122 C 
ATOM     33  N   UNL     1      19.622  -3.621   7.661  1.00  0.00    -0.384 N 
ATOM     34  H   UNL     1      20.272  -3.877   8.335  1.00  0.00     0.158 HD
ATOM     35  H   UNL     1      19.922  -3.297   6.797  1.00  0.00     0.158 HD
BRANCH  32  36
ATOM     36  N   UNL     1      17.404  -3.378   7.024  1.00  0.00    -0.284 NA
ATOM     37  H   UNL     1      17.594  -2.641   6.422  1.00  0.00     0.189 HD
ENDBRANCH  32  36
ENDBRANCH  31  32
ENDBRANCH  25  26
ENDBRANCH  22  25
ENDBRANCH  17  21
ENDBRANCH   1  16
TORSDOF 9
ENDMDL
MODEL 4
REMARK VINA RESULT:    -4.370      1.528      2.519
REMARK INTER + INTRA:          -8.625
REMARK INTER:                  -8.300
REMARK INTRA:                  -0.325
REMARK UNBOUND:                -0.296
REMARK SMILES [H]/N=C(\N)c1ccc(CNC(=O)[C@@H]2CCCN2C(=O)CNC2CCCCCCC2)cc1
REMARK SMILES IDX 18 1 19 2 20 3 21 4 22 6 23 7 24 8 29 10 28 11 27 12 26 13
REMARK SMILES IDX 25 14 17 16 13 17 16 18 14 19 15 20 11 21 10 22 12 23 9 25
REMARK SMILES IDX 8 26 30 27 7 28 31 29 6 30 5 31 3 32 4 33 2 36 1 37
REMARK H PARENT 21 5 10 24 4 34 4 35
REMARK Flexibility Score:  112.900
ROOT
ATOM      1  C   UNL     1      17.627  -9.399  12.634  1.00  0.00     0.237 C 
ATOM      2  O   UNL     1      17.611  -8.886  11.535  1.00  0.00    -0.273 OA
ENDROOT
BRANCH   1   3
ATOM      3  C   UNL     1      16.852 -10.667  12.885  1.00  0.00     0.182 C 
BRANCH   3   4
ATOM      4  N   UNL     1      17.769 -11.814  12.861  1.00  0.00    -0.306 NA
ATOM      5  H   UNL     1      18.708 -11.521  12.634  1.00  0.00     0.123 HD
BRANCH   4   6
ATOM      6  C   UNL     1      17.298 -12.845  11.927  1.00  0.00     0.054 C 
BRANCH   6   7
ATOM      7  C   UNL     1      18.101 -14.130  12.139  1.00  0.00     0.019 C 
BRANCH   7   8
ATOM      8  C   UNL     1      19.482 -13.782  12.699  1.00  0.00     0.002 CG0
ATOM      9  G   UNL     1      20.513 -13.818  11.570  1.00  0.00     0.000 G0
ENDBRANCH   7   8
ENDBRANCH   6   7
BRANCH   6  10
ATOM     10  C   UNL     1      17.486 -12.356  10.490  1.00  0.00     0.019 C 
BRANCH  10  11
ATOM     11  C   UNL     1      18.762 -12.966   9.907  1.00  0.00     0.002 C 
BRANCH  11  12
ATOM     12  C   UNL     1      19.906 -11.956  10.017  1.00  0.00     0.000 C 
BRANCH  12  13
ATOM     13  C   UNL     1      20.880 -12.407  11.107  1.00  0.00     0.000 C 
BRANCH  13  14
ATOM     14  C   UNL     1      20.524 -13.826  11.555  1.00  0.00     0.000 CG0
ATOM     15  G   UNL     1      19.479 -13.761  12.671  1.00  0.00     0.000 G0
ENDBRANCH  13  14
ENDBRANCH  12  13
ENDBRANCH  11  12
ENDBRANCH  10  11
ENDBRANCH   6  10
ENDBRANCH   4   6
ENDBRANCH   3   4
ENDBRANCH   1   3
BRANCH   1  16
ATOM     16  N   UNL     1      18.339  -8.835  13.630  1.00  0.00    -0.330 N 
ATOM     17  C   UNL     1      17.831  -7.838  14.591  1.00  0.00     0.174 C 
ATOM     18  C   UNL     1      19.749  -9.113  13.940  1.00  0.00     0.120 C 
ATOM     19  C   UNL     1      19.091  -7.080  15.077  1.00  0.00     0.037 C 
ATOM     20  C   UNL     1      20.139  -8.222  15.138  1.00  0.00     0.024 C 
BRANCH  17  21
ATOM     21  C   UNL     1      16.878  -6.891  13.910  1.00  0.00     0.243 C 
ATOM     22  N   UNL     1      17.344  -5.985  13.028  1.00  0.00    -0.350 N 
ATOM     23  O   UNL     1      15.692  -6.941  14.160  1.00  0.00    -0.273 OA
ATOM     24  H   UNL     1      18.292  -5.944  12.829  1.00  0.00     0.163 HD
BRANCH  22  25
ATOM     25  C   UNL     1      16.417  -5.061  12.370  1.00  0.00     0.151 C 
BRANCH  25  26
ATOM     26  C   UNL     1      16.953  -4.695  11.010  1.00  0.00    -0.029 A 
ATOM     27  C   UNL     1      16.131  -4.068  10.091  1.00  0.00     0.006 A 
ATOM     28  C   UNL     1      18.267  -4.984  10.686  1.00  0.00     0.006 A 
ATOM     29  C   UNL     1      16.615  -3.732   8.844  1.00  0.00     0.012 A 
ATOM     30  C   UNL     1      18.761  -4.658   9.439  1.00  0.00     0.012 A 
ATOM     31  C   UNL     1      17.936  -4.025   8.510  1.00  0.00     0.016 A 
BRANCH  31  32
ATOM     32  C   UNL     1      18.463  -3.667   7.172  1.00  0.00     0.122 C 
ATOM     33  N   UNL     1      19.810  -3.779   6.910  1.00  0.00    -0.384 N 
ATOM     34  H   UNL     1      20.415  -4.093   7.601  1.00  0.00     0.158 HD
ATOM     35  H   UNL     1      20.155  -3.544   6.034  1.00  0.00     0.158 HD
BRANCH  32  36
ATOM     36  N   UNL     1      17.652  -3.246   6.245  1.00  0.00    -0.284 NA
ATOM     37  H   UNL     1      16.791  -2.869   6.488  1.00  0.00     0.189 HD
ENDBRANCH  32  36
ENDBRANCH  31  32
ENDBRANCH  25  26
ENDBRANCH  22  25
ENDBRANCH  17  21
ENDBRANCH   1  16
TORSDOF 9
ENDMDL
MODEL 5
REMARK VINA RESULT:    -4.083      3.310      7.264
REMARK INTER + INTRA:          -8.078
REMARK INTER:                  -8.017
REMARK INTRA:                  -0.061
REMARK UNBOUND:                -0.296
REMARK SMILES [H]/N=C(\N)c1ccc(CNC(=O)[C@@H]2CCCN2C(=O)CNC2CCCCCCC2)cc1
REMARK SMILES IDX 18 1 19 2 20 3 21 4 22 6 23 7 24 8 29 10 28 11 27 12 26 13
REMARK SMILES IDX 25 14 17 16 13 17 16 18 14 19 15 20 11 21 10 22 12 23 9 25
REMARK SMILES IDX 8 26 30 27 7 28 31 29 6 30 5 31 3 32 4 33 2 36 1 37
REMARK H PARENT 21 5 10 24 4 34 4 35
REMARK Flexibility Score:  112.900
ROOT
ATOM      1  C   UNL     1      16.576  -6.344  14.086  1.00  0.00     0.237 C 
ATOM      2  O   UNL     1      17.279  -5.756  14.881  1.00  0.00    -0.273 OA
ENDROOT
BRANCH   1   3
ATOM      3  C   UNL     1      16.068  -5.632  12.859  1.00  0.00     0.182 C 
BRANCH   3   4
ATOM      4  N   UNL     1      16.923  -5.962  11.711  1.00  0.00    -0.306 NA
ATOM      5  H   UNL     1      17.515  -6.753  11.918  1.00  0.00     0.123 HD
BRANCH   4   6
ATOM      6  C   UNL     1      17.722  -4.801  11.298  1.00  0.00     0.054 C 
BRANCH   6   7
ATOM      7  C   UNL     1      16.796  -3.607  11.053  1.00  0.00     0.019 C 
BRANCH   7   8
ATOM      8  C   UNL     1      16.104  -3.768   9.698  1.00  0.00     0.002 CG0
ATOM      9  G   UNL     1      16.802  -2.887   8.661  1.00  0.00     0.000 G0
ENDBRANCH   7   8
ENDBRANCH   6   7
BRANCH   6  10
ATOM     10  C   UNL     1      18.478  -5.133  10.010  1.00  0.00     0.019 C 
BRANCH  10  11
ATOM     11  C   UNL     1      19.251  -3.900   9.540  1.00  0.00     0.002 C 
BRANCH  11  12
ATOM     12  C   UNL     1      19.077  -3.734   8.029  1.00  0.00     0.000 C 
BRANCH  12  13
ATOM     13  C   UNL     1      17.586  -3.754   7.684  1.00  0.00     0.000 C 
BRANCH  13  14
ATOM     14  C   UNL     1      16.820  -2.873   8.672  1.00  0.00     0.000 CG0
ATOM     15  G   UNL     1      16.098  -3.758   9.689  1.00  0.00     0.000 G0
ENDBRANCH  13  14
ENDBRANCH  12  13
ENDBRANCH  11  12
ENDBRANCH  10  11
ENDBRANCH   6  10
ENDBRANCH   4   6
ENDBRANCH   3   4
ENDBRANCH   1   3
BRANCH   1  16
ATOM     16  N   UNL     1      16.250  -7.634  14.300  1.00  0.00    -0.330 N 
ATOM     17  C   UNL     1      17.144  -8.665  14.859  1.00  0.00     0.174 C 
ATOM     18  C   UNL     1      14.945  -8.247  14.014  1.00  0.00     0.120 C 
ATOM     19  C   UNL     1      16.573 -10.008  14.341  1.00  0.00     0.037 C 
ATOM     20  C   UNL     1      15.046  -9.739  14.394  1.00  0.00     0.024 C 
BRANCH  17  21
ATOM     21  C   UNL     1      18.552  -8.466  14.361  1.00  0.00     0.243 C 
ATOM     22  N   UNL     1      18.849  -8.703  13.068  1.00  0.00    -0.350 N 
ATOM     23  O   UNL     1      19.419  -8.095  15.125  1.00  0.00    -0.273 OA
ATOM     24  H   UNL     1      18.156  -9.000  12.457  1.00  0.00     0.163 HD
BRANCH  22  25
ATOM     25  C   UNL     1      20.219  -8.514  12.586  1.00  0.00     0.151 C 
BRANCH  25  26
ATOM     26  C   UNL     1      20.607  -9.676  11.707  1.00  0.00    -0.029 A 
ATOM     27  C   UNL     1      19.626 -10.429  11.087  1.00  0.00     0.006 A 
ATOM     28  C   UNL     1      21.944  -9.983  11.521  1.00  0.00     0.006 A 
ATOM     29  C   UNL     1      19.975 -11.494  10.283  1.00  0.00     0.012 A 
ATOM     30  C   UNL     1      22.304 -11.050  10.723  1.00  0.00     0.012 A 
ATOM     31  C   UNL     1      21.319 -11.811  10.095  1.00  0.00     0.016 A 
BRANCH  31  32
ATOM     32  C   UNL     1      21.701 -12.954   9.233  1.00  0.00     0.122 C 
ATOM     33  N   UNL     1      20.820 -13.995   9.040  1.00  0.00    -0.384 N 
ATOM     34  H   UNL     1      19.949 -13.980   9.468  1.00  0.00     0.158 HD
ATOM     35  H   UNL     1      21.070 -14.743   8.475  1.00  0.00     0.158 HD
BRANCH  32  36
ATOM     36  N   UNL     1      22.869 -12.973   8.658  1.00  0.00    -0.284 NA
ATOM     37  H   UNL     1      23.540 -13.612   8.946  1.00  0.00     0.189 HD
ENDBRANCH  32  36
ENDBRANCH  31  32
ENDBRANCH  25  26
ENDBRANCH  22  25
ENDBRANCH  17  21
ENDBRANCH   1  16
TORSDOF 9
ENDMDL
