13U
     RDKit          3D

 65 67  0  0  0  0  0  0  0  0999 V2000
   20.4040   -3.2790    6.5290 H   0  0  0  0  0  0  0  0  0  0  0  0
   19.9880   -3.3840    7.4000 N   0  0  0  0  0  0  0  0  0  0  0  0
   18.7020   -3.5720    7.4880 C   0  0  0  0  0  0  0  0  0  0  0  0
   17.8980   -3.3660    6.3890 N   0  0  0  0  0  0  0  0  0  0  0  0
   18.1050   -4.0070    8.7720 C   0  0  0  0  0  0  0  0  0  0  0  0
   18.7650   -4.9420    9.5690 C   0  0  0  0  0  0  0  0  0  0  0  0
   18.2070   -5.3390   10.7670 C   0  0  0  0  0  0  0  0  0  0  0  0
   16.9890   -4.8210   11.1720 C   0  0  0  0  0  0  0  0  0  0  0  0
   16.3810   -5.2650   12.4780 C   0  0  0  0  0  0  0  0  0  0  0  0
   16.2390   -6.7220   12.4800 N   0  0  0  0  0  0  0  0  0  0  0  0
   15.8330   -7.3580   13.5970 C   0  0  0  0  0  0  0  0  0  0  0  0
   15.5840   -6.7220   14.6000 O   0  0  0  0  0  0  0  0  0  0  0  0
   15.6930   -8.8580   13.6020 C   0  0  2  0  0  0  0  0  0  0  0  0
   14.4960   -9.2850   14.4880 C   0  0  0  0  0  0  0  0  0  0  0  0
   14.8930  -10.7360   14.8690 C   0  0  0  0  0  0  0  0  0  0  0  0
   16.4270  -10.6500   15.0080 C   0  0  0  0  0  0  0  0  0  0  0  0
   16.8710   -9.4820   14.2330 N   0  0  0  0  0  0  0  0  0  0  0  0
   18.1440   -9.0530   14.1170 C   0  0  0  0  0  0  0  0  0  0  0  0
   18.4110   -7.8880   14.3210 O   0  0  0  0  0  0  0  0  0  0  0  0
   19.2330  -10.0210   13.7350 C   0  0  0  0  0  0  0  0  0  0  0  0
   19.5080   -9.9070   12.2970 N   0  0  0  0  0  0  0  0  0  0  0  0
   19.1070  -11.1280   11.5860 C   0  0  0  0  0  0  0  0  0  0  0  0
   20.0460  -11.3580   10.4000 C   0  0  0  0  0  0  0  0  0  0  0  0
   20.3710  -12.8490   10.2890 C   0  0  0  0  0  0  0  0  0  0  0  0
   19.4120  -13.5270    9.2590 C   0  0  0  0  0  0  0  0  0  0  0  0
   18.1830  -14.0900    9.9760 C   0  0  0  0  0  0  0  0  0  0  0  0
   17.0360  -13.0810    9.8940 C   0  0  0  0  0  0  0  0  0  0  0  0
   16.9390  -12.3110   11.2130 C   0  0  0  0  0  0  0  0  0  0  0  0
   17.6720  -10.9750   11.0780 C   0  0  0  0  0  0  0  0  0  0  0  0
   16.3300   -3.8940   10.3850 C   0  0  0  0  0  0  0  0  0  0  0  0
   16.8810   -3.4840    9.1880 C   0  0  0  0  0  0  0  0  0  0  0  0
   16.9400   -3.5060    6.4560 H   0  0  0  0  0  0  0  0  0  0  0  0
   18.2900   -3.0810    5.5480 H   0  0  0  0  0  0  0  0  0  0  0  0
   19.7281   -5.3620    9.2434 H   0  0  0  0  0  0  0  0  0  0  0  0
   18.7313   -6.0687   11.4015 H   0  0  0  0  0  0  0  0  0  0  0  0
   17.0336   -4.9591   13.3090 H   0  0  0  0  0  0  0  0  0  0  0  0
   15.3914   -4.8001   12.5985 H   0  0  0  0  0  0  0  0  0  0  0  0
   16.4390   -7.2300   11.6780 H   0  0  0  0  0  0  0  0  0  0  0  0
   15.5679   -9.1701   12.5547 H   0  0  0  0  0  0  0  0  0  0  0  0
   14.4077   -8.6458   15.3789 H   0  0  0  0  0  0  0  0  0  0  0  0
   13.5187   -9.2043   13.9896 H   0  0  0  0  0  0  0  0  0  0  0  0
   14.4261  -11.0374   15.8183 H   0  0  0  0  0  0  0  0  0  0  0  0
   14.5655  -11.4833   14.1312 H   0  0  0  0  0  0  0  0  0  0  0  0
   16.7029  -10.5270   16.0657 H   0  0  0  0  0  0  0  0  0  0  0  0
   16.9041  -11.5687   14.6360 H   0  0  0  0  0  0  0  0  0  0  0  0
   20.1461   -9.7880   14.3024 H   0  0  0  0  0  0  0  0  0  0  0  0
   18.9091  -11.0466   13.9659 H   0  0  0  0  0  0  0  0  0  0  0  0
   19.0530   -9.0940   11.9060 H   0  0  0  0  0  0  0  0  0  0  0  0
   19.1633  -11.9868   12.2711 H   0  0  0  0  0  0  0  0  0  0  0  0
   19.5576  -11.0192    9.4744 H   0  0  0  0  0  0  0  0  0  0  0  0
   20.9757  -10.7903   10.5527 H   0  0  0  0  0  0  0  0  0  0  0  0
   21.4116  -12.9715    9.9540 H   0  0  0  0  0  0  0  0  0  0  0  0
   20.2389  -13.3227   11.2730 H   0  0  0  0  0  0  0  0  0  0  0  0
   19.0904  -12.7820    8.5163 H   0  0  0  0  0  0  0  0  0  0  0  0
   19.9446  -14.3490    8.7583 H   0  0  0  0  0  0  0  0  0  0  0  0
   17.8779  -15.0314    9.4957 H   0  0  0  0  0  0  0  0  0  0  0  0
   18.4295  -14.2789   11.0312 H   0  0  0  0  0  0  0  0  0  0  0  0
   17.2257  -12.3762    9.0710 H   0  0  0  0  0  0  0  0  0  0  0  0
   16.0914  -13.6137    9.7100 H   0  0  0  0  0  0  0  0  0  0  0  0
   15.8815  -12.1265   11.4531 H   0  0  0  0  0  0  0  0  0  0  0  0
   17.3997  -12.9025   12.0179 H   0  0  0  0  0  0  0  0  0  0  0  0
   17.6875  -10.6703   10.0212 H   0  0  0  0  0  0  0  0  0  0  0  0
   17.1519  -10.2093   11.6724 H   0  0  0  0  0  0  0  0  0  0  0  0
   15.3644   -3.4825   10.7140 H   0  0  0  0  0  0  0  0  0  0  0  0
   16.3559   -2.7463    8.5634 H   0  0  0  0  0  0  0  0  0  0  0  0
  1  2  1  0
  2  3  2  0
  3  4  1  0
  3  5  1  0
  5  6  2  0
  6  7  1  0
  7  8  2  0
  8  9  1  0
  9 10  1  0
 10 11  1  0
 11 12  2  0
 11 13  1  0
 13 14  1  0
 14 15  1  0
 15 16  1  0
 16 17  1  0
 17 18  1  0
 18 19  2  0
 18 20  1  0
 20 21  1  0
 21 22  1  0
 22 23  1  0
 23 24  1  0
 24 25  1  0
 25 26  1  0
 26 27  1  0
 27 28  1  0
 28 29  1  0
  8 30  1  0
 30 31  2  0
 31  5  1  0
 17 13  1  0
 29 22  1  0
  4 32  1  0
  4 33  1  0
  6 34  1  0
  7 35  1  0
  9 36  1  0
  9 37  1  0
 10 38  1  0
 13 39  1  6
 14 40  1  0
 14 41  1  0
 15 42  1  0
 15 43  1  0
 16 44  1  0
 16 45  1  0
 20 46  1  0
 20 47  1  0
 21 48  1  0
 22 49  1  0
 23 50  1  0
 23 51  1  0
 24 52  1  0
 24 53  1  0
 25 54  1  0
 25 55  1  0
 26 56  1  0
 26 57  1  0
 27 58  1  0
 27 59  1  0
 28 60  1  0
 28 61  1  0
 29 62  1  0
 29 63  1  0
 30 64  1  0
 31 65  1  0
M  END
>  <meeko>  (1) 
{"is_sidechain": [false], "free_energy": -5.251, "intermolecular_energy": -10.009, "internal_energy": -0.296}

$$$$
13U
     RDKit          3D

 65 67  0  0  0  0  0  0  0  0999 V2000
   20.0380   -3.9290    6.0500 H   0  0  0  0  0  0  0  0  0  0  0  0
   19.6700   -4.1730    6.9140 N   0  0  0  0  0  0  0  0  0  0  0  0
   18.4890   -3.7490    7.2610 C   0  0  0  0  0  0  0  0  0  0  0  0
   17.7250   -3.0290    6.3690 N   0  0  0  0  0  0  0  0  0  0  0  0
   17.9660   -4.0410    8.6160 C   0  0  0  0  0  0  0  0  0  0  0  0
   18.6930   -4.8540    9.4860 C   0  0  0  0  0  0  0  0  0  0  0  0
   18.2050   -5.1180   10.7490 C   0  0  0  0  0  0  0  0  0  0  0  0
   16.9910   -4.5890   11.1490 C   0  0  0  0  0  0  0  0  0  0  0  0
   16.4590   -4.8870   12.5270 C   0  0  0  0  0  0  0  0  0  0  0  0
   15.8550   -6.2210   12.5400 N   0  0  0  0  0  0  0  0  0  0  0  0
   15.9170   -6.9790   13.6520 C   0  0  0  0  0  0  0  0  0  0  0  0
   16.4730   -6.5550   14.6440 O   0  0  0  0  0  0  0  0  0  0  0  0
   15.3010   -8.3530   13.6630 C   0  0  2  0  0  0  0  0  0  0  0  0
   14.6190   -8.6280   15.0270 C   0  0  0  0  0  0  0  0  0  0  0  0
   14.6350  -10.1790   15.0770 C   0  0  0  0  0  0  0  0  0  0  0  0
   15.9710  -10.5330   14.3890 C   0  0  0  0  0  0  0  0  0  0  0  0
   16.3470   -9.3860   13.5500 N   0  0  0  0  0  0  0  0  0  0  0  0
   17.4630   -9.2940   12.8000 C   0  0  0  0  0  0  0  0  0  0  0  0
   17.5000   -8.5310   11.8590 O   0  0  0  0  0  0  0  0  0  0  0  0
   18.6650  -10.1410   13.1310 C   0  0  0  0  0  0  0  0  0  0  0  0
   18.5980  -11.4020   12.3810 N   0  0  0  0  0  0  0  0  0  0  0  0
   19.8060  -11.5960   11.5690 C   0  0  0  0  0  0  0  0  0  0  0  0
   20.7970  -10.4660   11.8500 C   0  0  0  0  0  0  0  0  0  0  0  0
   22.2200  -11.0280   11.8700 C   0  0  0  0  0  0  0  0  0  0  0  0
   22.8640  -10.8470   10.4680 C   0  0  0  0  0  0  0  0  0  0  0  0
   22.6870  -12.1220    9.6420 C   0  0  0  0  0  0  0  0  0  0  0  0
   21.4820  -11.9660    8.7120 C   0  0  0  0  0  0  0  0  0  0  0  0
   20.2610  -12.6370    9.3440 C   0  0  0  0  0  0  0  0  0  0  0  0
   19.4300  -11.5880   10.0860 C   0  0  0  0  0  0  0  0  0  0  0  0
   16.2660   -3.7820   10.2900 C   0  0  0  0  0  0  0  0  0  0  0  0
   16.7460   -3.5060    9.0270 C   0  0  0  0  0  0  0  0  0  0  0  0
   16.8450   -2.7130    6.6280 H   0  0  0  0  0  0  0  0  0  0  0  0
   18.0680   -2.8380    5.4820 H   0  0  0  0  0  0  0  0  0  0  0  0
   19.6535   -5.2837    9.1655 H   0  0  0  0  0  0  0  0  0  0  0  0
   18.7824   -5.7504   11.4394 H   0  0  0  0  0  0  0  0  0  0  0  0
   17.2837   -4.8510   13.2540 H   0  0  0  0  0  0  0  0  0  0  0  0
   15.6994   -4.1383   12.7962 H   0  0  0  0  0  0  0  0  0  0  0  0
   15.4100   -6.5590   11.7460 H   0  0  0  0  0  0  0  0  0  0  0  0
   14.5880   -8.3892   12.8261 H   0  0  0  0  0  0  0  0  0  0  0  0
   15.1941   -8.1937   15.8581 H   0  0  0  0  0  0  0  0  0  0  0  0
   13.6155   -8.1876   15.1224 H   0  0  0  0  0  0  0  0  0  0  0  0
   14.6164  -10.5416   16.1153 H   0  0  0  0  0  0  0  0  0  0  0  0
   13.7614  -10.6381   14.5912 H   0  0  0  0  0  0  0  0  0  0  0  0
   16.7475  -10.7163   15.1462 H   0  0  0  0  0  0  0  0  0  0  0  0
   15.8669  -11.4435   13.7806 H   0  0  0  0  0  0  0  0  0  0  0  0
   19.5820   -9.5993   12.8560 H   0  0  0  0  0  0  0  0  0  0  0  0
   18.6754  -10.3565   14.2096 H   0  0  0  0  0  0  0  0  0  0  0  0
   18.4500  -12.1840   13.0030 H   0  0  0  0  0  0  0  0  0  0  0  0
   20.2686  -12.5606   11.8250 H   0  0  0  0  0  0  0  0  0  0  0  0
   20.7154   -9.7026   11.0623 H   0  0  0  0  0  0  0  0  0  0  0  0
   20.5684  -10.0124   12.8257 H   0  0  0  0  0  0  0  0  0  0  0  0
   22.8171  -10.4896   12.6208 H   0  0  0  0  0  0  0  0  0  0  0  0
   22.1900  -12.0974   12.1261 H   0  0  0  0  0  0  0  0  0  0  0  0
   22.3783  -10.0070    9.9498 H   0  0  0  0  0  0  0  0  0  0  0  0
   23.9378  -10.6409   10.5880 H   0  0  0  0  0  0  0  0  0  0  0  0
   23.5921  -12.2987    9.0424 H   0  0  0  0  0  0  0  0  0  0  0  0
   22.5208  -12.9749   10.3165 H   0  0  0  0  0  0  0  0  0  0  0  0
   21.2740  -10.8970    8.5572 H   0  0  0  0  0  0  0  0  0  0  0  0
   21.7015  -12.4403    7.7441 H   0  0  0  0  0  0  0  0  0  0  0  0
   19.6484  -13.1002    8.5565 H   0  0  0  0  0  0  0  0  0  0  0  0
   20.5930  -13.4102   10.0524 H   0  0  0  0  0  0  0  0  0  0  0  0
   19.6316  -10.5933    9.6619 H   0  0  0  0  0  0  0  0  0  0  0  0
   18.3609  -11.8228    9.9773 H   0  0  0  0  0  0  0  0  0  0  0  0
   15.3040   -3.3594   10.6155 H   0  0  0  0  0  0  0  0  0  0  0  0
   16.1675   -2.8651    8.3454 H   0  0  0  0  0  0  0  0  0  0  0  0
  1  2  1  0
  2  3  2  0
  3  4  1  0
  3  5  1  0
  5  6  2  0
  6  7  1  0
  7  8  2  0
  8  9  1  0
  9 10  1  0
 10 11  1  0
 11 12  2  0
 11 13  1  0
 13 14  1  0
 14 15  1  0
 15 16  1  0
 16 17  1  0
 17 18  1  0
 18 19  2  0
 18 20  1  0
 20 21  1  0
 21 22  1  0
 22 23  1  0
 23 24  1  0
 24 25  1  0
 25 26  1  0
 26 27  1  0
 27 28  1  0
 28 29  1  0
  8 30  1  0
 30 31  2  0
 31  5  1  0
 17 13  1  0
 29 22  1  0
  4 32  1  0
  4 33  1  0
  6 34  1  0
  7 35  1  0
  9 36  1  0
  9 37  1  0
 10 38  1  0
 13 39  1  6
 14 40  1  0
 14 41  1  0
 15 42  1  0
 15 43  1  0
 16 44  1  0
 16 45  1  0
 20 46  1  0
 20 47  1  0
 21 48  1  0
 22 49  1  0
 23 50  1  0
 23 51  1  0
 24 52  1  0
 24 53  1  0
 25 54  1  0
 25 55  1  0
 26 56  1  0
 26 57  1  0
 27 58  1  0
 27 59  1  0
 28 60  1  0
 28 61  1  0
 29 62  1  0
 29 63  1  0
 30 64  1  0
 31 65  1  0
M  END
>  <meeko>  (2) 
{"is_sidechain": [false], "free_energy": -4.904, "intermolecular_energy": -9.278, "internal_energy": -0.366}

$$$$
13U
     RDKit          3D

 65 67  0  0  0  0  0  0  0  0999 V2000
   17.5940   -2.6410    6.4220 H   0  0  0  0  0  0  0  0  0  0  0  0
   17.4040   -3.3780    7.0240 N   0  0  0  0  0  0  0  0  0  0  0  0
   18.2750   -3.7200    7.9290 C   0  0  0  0  0  0  0  0  0  0  0  0
   19.6220   -3.6210    7.6610 N   0  0  0  0  0  0  0  0  0  0  0  0
   17.8170   -4.2140    9.2480 C   0  0  0  0  0  0  0  0  0  0  0  0
   16.6700   -3.6810    9.8340 C   0  0  0  0  0  0  0  0  0  0  0  0
   16.2430   -4.1490   11.0610 C   0  0  0  0  0  0  0  0  0  0  0  0
   16.9600   -5.1370   11.7140 C   0  0  0  0  0  0  0  0  0  0  0  0
   16.4940   -5.6390   13.0570 C   0  0  0  0  0  0  0  0  0  0  0  0
   15.9200   -6.9780   12.9050 N   0  0  0  0  0  0  0  0  0  0  0  0
   16.2300   -7.9470   13.7880 C   0  0  0  0  0  0  0  0  0  0  0  0
   16.9840   -7.7110   14.7090 O   0  0  0  0  0  0  0  0  0  0  0  0
   15.6450   -9.3260   13.6290 C   0  0  2  0  0  0  0  0  0  0  0  0
   15.0610   -9.8240   14.9750 C   0  0  0  0  0  0  0  0  0  0  0  0
   15.1130  -11.3630   14.7880 C   0  0  0  0  0  0  0  0  0  0  0  0
   16.4070  -11.5690   13.9730 C   0  0  0  0  0  0  0  0  0  0  0  0
   16.7030  -10.2980   13.2950 N   0  0  0  0  0  0  0  0  0  0  0  0
   17.7650  -10.0610   12.5000 C   0  0  0  0  0  0  0  0  0  0  0  0
   17.6150   -9.4780   11.4470 O   0  0  0  0  0  0  0  0  0  0  0  0
   19.1380  -10.5180   12.9190 C   0  0  0  0  0  0  0  0  0  0  0  0
   20.1400   -9.9740   11.9930 N   0  0  0  0  0  0  0  0  0  0  0  0
   20.8610  -11.0530   11.3050 C   0  0  0  0  0  0  0  0  0  0  0  0
   20.1210  -11.4210   10.0180 C   0  0  0  0  0  0  0  0  0  0  0  0
   21.1350  -11.6590    8.8960 C   0  0  0  0  0  0  0  0  0  0  0  0
   21.4240  -13.1820    8.7410 C   0  0  0  0  0  0  0  0  0  0  0  0
   22.6210  -13.5740    9.6100 C   0  0  0  0  0  0  0  0  0  0  0  0
   22.1240  -14.0850   10.9640 C   0  0  0  0  0  0  0  0  0  0  0  0
   22.2810  -12.9820   12.0130 C   0  0  0  0  0  0  0  0  0  0  0  0
   20.9390  -12.2780   12.2180 C   0  0  0  0  0  0  0  0  0  0  0  0
   18.0990   -5.6680   11.1370 C   0  0  0  0  0  0  0  0  0  0  0  0
   18.5320   -5.2120    9.9090 C   0  0  0  0  0  0  0  0  0  0  0  0
   20.2720   -3.8770    8.3350 H   0  0  0  0  0  0  0  0  0  0  0  0
   19.9220   -3.2970    6.7970 H   0  0  0  0  0  0  0  0  0  0  0  0
   16.1059   -2.8889    9.3198 H   0  0  0  0  0  0  0  0  0  0  0  0
   15.3324   -3.7364   11.5199 H   0  0  0  0  0  0  0  0  0  0  0  0
   17.3481   -5.6825   13.7488 H   0  0  0  0  0  0  0  0  0  0  0  0
   15.7310   -4.9563   13.4592 H   0  0  0  0  0  0  0  0  0  0  0  0
   15.3180   -7.1670   12.1680 H   0  0  0  0  0  0  0  0  0  0  0  0
   14.8788   -9.2577   12.8427 H   0  0  0  0  0  0  0  0  0  0  0  0
   15.6806   -9.5019   15.8249 H   0  0  0  0  0  0  0  0  0  0  0  0
   14.0569   -9.4343   15.1984 H   0  0  0  0  0  0  0  0  0  0  0  0
   15.1706  -11.8776   15.7585 H   0  0  0  0  0  0  0  0  0  0  0  0
   14.2191  -11.7704   14.2932 H   0  0  0  0  0  0  0  0  0  0  0  0
   17.2355  -11.8397   14.6440 H   0  0  0  0  0  0  0  0  0  0  0  0
   16.2818  -12.3810   13.2415 H   0  0  0  0  0  0  0  0  0  0  0  0
   19.3482  -10.1604   13.9378 H   0  0  0  0  0  0  0  0  0  0  0  0
   19.1799  -11.6170   12.8996 H   0  0  0  0  0  0  0  0  0  0  0  0
   19.7130   -9.3440   11.3300 H   0  0  0  0  0  0  0  0  0  0  0  0
   21.8784  -10.7151   11.0585 H   0  0  0  0  0  0  0  0  0  0  0  0
   19.5338  -12.3366   10.1818 H   0  0  0  0  0  0  0  0  0  0  0  0
   19.4473  -10.5989    9.7348 H   0  0  0  0  0  0  0  0  0  0  0  0
   20.7286  -11.2690    7.9512 H   0  0  0  0  0  0  0  0  0  0  0  0
   22.0726  -11.1410    9.1459 H   0  0  0  0  0  0  0  0  0  0  0  0
   20.5400  -13.7554    9.0570 H   0  0  0  0  0  0  0  0  0  0  0  0
   21.6522  -13.4028    7.6878 H   0  0  0  0  0  0  0  0  0  0  0  0
   23.1949  -14.3665    9.1074 H   0  0  0  0  0  0  0  0  0  0  0  0
   23.2651  -12.6957    9.7640 H   0  0  0  0  0  0  0  0  0  0  0  0
   21.0636  -14.3663   10.8833 H   0  0  0  0  0  0  0  0  0  0  0  0
   22.7140  -14.9636   11.2639 H   0  0  0  0  0  0  0  0  0  0  0  0
   22.6116  -13.4250   12.9640 H   0  0  0  0  0  0  0  0  0  0  0  0
   23.0287  -12.2524   11.6685 H   0  0  0  0  0  0  0  0  0  0  0  0
   20.1204  -12.9707   11.9729 H   0  0  0  0  0  0  0  0  0  0  0  0
   20.8484  -11.9598   13.2671 H   0  0  0  0  0  0  0  0  0  0  0  0
   18.6615   -6.4563   11.6587 H   0  0  0  0  0  0  0  0  0  0  0  0
   19.4391   -5.6347    9.4525 H   0  0  0  0  0  0  0  0  0  0  0  0
  1  2  1  0
  2  3  2  0
  3  4  1  0
  3  5  1  0
  5  6  2  0
  6  7  1  0
  7  8  2  0
  8  9  1  0
  9 10  1  0
 10 11  1  0
 11 12  2  0
 11 13  1  0
 13 14  1  0
 14 15  1  0
 15 16  1  0
 16 17  1  0
 17 18  1  0
 18 19  2  0
 18 20  1  0
 20 21  1  0
 21 22  1  0
 22 23  1  0
 23 24  1  0
 24 25  1  0
 25 26  1  0
 26 27  1  0
 27 28  1  0
 28 29  1  0
  8 30  1  0
 30 31  2  0
 31  5  1  0
 17 13  1  0
 29 22  1  0
  4 32  1  0
  4 33  1  0
  6 34  1  0
  7 35  1  0
  9 36  1  0
  9 37  1  0
 10 38  1  0
 13 39  1  6
 14 40  1  0
 14 41  1  0
 15 42  1  0
 15 43  1  0
 16 44  1  0
 16 45  1  0
 20 46  1  0
 20 47  1  0
 21 48  1  0
 22 49  1  0
 23 50  1  0
 23 51  1  0
 24 52  1  0
 24 53  1  0
 25 54  1  0
 25 55  1  0
 26 56  1  0
 26 57  1  0
 27 58  1  0
 27 59  1  0
 28 60  1  0
 28 61  1  0
 29 62  1  0
 29 63  1  0
 30 64  1  0
 31 65  1  0
M  END
>  <meeko>  (3) 
{"is_sidechain": [false], "free_energy": -4.373, "intermolecular_energy": -8.045, "internal_energy": -0.585}

$$$$
13U
     RDKit          3D

 65 67  0  0  0  0  0  0  0  0999 V2000
   16.7910   -2.8690    6.4880 H   0  0  0  0  0  0  0  0  0  0  0  0
   17.6520   -3.2460    6.2450 N   0  0  0  0  0  0  0  0  0  0  0  0
   18.4630   -3.6670    7.1720 C   0  0  0  0  0  0  0  0  0  0  0  0
   19.8100   -3.7790    6.9100 N   0  0  0  0  0  0  0  0  0  0  0  0
   17.9360   -4.0250    8.5100 C   0  0  0  0  0  0  0  0  0  0  0  0
   18.7610   -4.6580    9.4390 C   0  0  0  0  0  0  0  0  0  0  0  0
   18.2670   -4.9840   10.6860 C   0  0  0  0  0  0  0  0  0  0  0  0
   16.9530   -4.6950   11.0100 C   0  0  0  0  0  0  0  0  0  0  0  0
   16.4170   -5.0610   12.3700 C   0  0  0  0  0  0  0  0  0  0  0  0
   17.3440   -5.9850   13.0280 N   0  0  0  0  0  0  0  0  0  0  0  0
   16.8780   -6.8910   13.9100 C   0  0  0  0  0  0  0  0  0  0  0  0
   15.6920   -6.9410   14.1600 O   0  0  0  0  0  0  0  0  0  0  0  0
   17.8310   -7.8380   14.5910 C   0  0  2  0  0  0  0  0  0  0  0  0
   19.0910   -7.0800   15.0770 C   0  0  0  0  0  0  0  0  0  0  0  0
   20.1390   -8.2220   15.1380 C   0  0  0  0  0  0  0  0  0  0  0  0
   19.7490   -9.1130   13.9400 C   0  0  0  0  0  0  0  0  0  0  0  0
   18.3390   -8.8350   13.6300 N   0  0  0  0  0  0  0  0  0  0  0  0
   17.6270   -9.3990   12.6340 C   0  0  0  0  0  0  0  0  0  0  0  0
   17.6110   -8.8860   11.5350 O   0  0  0  0  0  0  0  0  0  0  0  0
   16.8520  -10.6670   12.8850 C   0  0  0  0  0  0  0  0  0  0  0  0
   17.7690  -11.8140   12.8610 N   0  0  0  0  0  0  0  0  0  0  0  0
   17.2980  -12.8450   11.9270 C   0  0  0  0  0  0  0  0  0  0  0  0
   18.1010  -14.1300   12.1390 C   0  0  0  0  0  0  0  0  0  0  0  0
   19.4820  -13.7820   12.6990 C   0  0  0  0  0  0  0  0  0  0  0  0
   20.5240  -13.8260   11.5550 C   0  0  0  0  0  0  0  0  0  0  0  0
   20.8800  -12.4070   11.1070 C   0  0  0  0  0  0  0  0  0  0  0  0
   19.9060  -11.9560   10.0170 C   0  0  0  0  0  0  0  0  0  0  0  0
   18.7620  -12.9660    9.9070 C   0  0  0  0  0  0  0  0  0  0  0  0
   17.4860  -12.3560   10.4900 C   0  0  0  0  0  0  0  0  0  0  0  0
   16.1310   -4.0680   10.0910 C   0  0  0  0  0  0  0  0  0  0  0  0
   16.6150   -3.7320    8.8440 C   0  0  0  0  0  0  0  0  0  0  0  0
   20.4150   -4.0930    7.6010 H   0  0  0  0  0  0  0  0  0  0  0  0
   20.1550   -3.5440    6.0340 H   0  0  0  0  0  0  0  0  0  0  0  0
   19.8027   -4.8969    9.1788 H   0  0  0  0  0  0  0  0  0  0  0  0
   18.9191   -5.4745   11.4237 H   0  0  0  0  0  0  0  0  0  0  0  0
   16.3116   -4.1514   12.9795 H   0  0  0  0  0  0  0  0  0  0  0  0
   15.4350   -5.5440   12.2591 H   0  0  0  0  0  0  0  0  0  0  0  0
   18.2920   -5.9440   12.8290 H   0  0  0  0  0  0  0  0  0  0  0  0
   17.2789   -8.3028   15.4211 H   0  0  0  0  0  0  0  0  0  0  0  0
   19.3899   -6.2989   14.3625 H   0  0  0  0  0  0  0  0  0  0  0  0
   18.9531   -6.5483   16.0300 H   0  0  0  0  0  0  0  0  0  0  0  0
   21.1598   -7.8288   15.0228 H   0  0  0  0  0  0  0  0  0  0  0  0
   20.1393   -8.7602   16.0974 H   0  0  0  0  0  0  0  0  0  0  0  0
   20.3799   -8.8733   13.0713 H   0  0  0  0  0  0  0  0  0  0  0  0
   19.8925  -10.1764   14.1822 H   0  0  0  0  0  0  0  0  0  0  0  0
   16.3628  -10.6092   13.8685 H   0  0  0  0  0  0  0  0  0  0  0  0
   16.0888  -10.7912   12.1027 H   0  0  0  0  0  0  0  0  0  0  0  0
   18.7080  -11.5210   12.6340 H   0  0  0  0  0  0  0  0  0  0  0  0
   16.2317  -13.0452   12.1087 H   0  0  0  0  0  0  0  0  0  0  0  0
   17.5705  -14.7808   12.8496 H   0  0  0  0  0  0  0  0  0  0  0  0
   18.2161  -14.6532   11.1782 H   0  0  0  0  0  0  0  0  0  0  0  0
   19.4578  -12.7725   13.1354 H   0  0  0  0  0  0  0  0  0  0  0  0
   19.7580  -14.5090   13.4770 H   0  0  0  0  0  0  0  0  0  0  0  0
   21.4329  -14.3330   11.9112 H   0  0  0  0  0  0  0  0  0  0  0  0
   20.0967  -14.3741   10.7023 H   0  0  0  0  0  0  0  0  0  0  0  0
   20.8110  -11.7233   11.9660 H   0  0  0  0  0  0  0  0  0  0  0  0
   21.9056  -12.3948   10.7096 H   0  0  0  0  0  0  0  0  0  0  0  0
   19.4989  -10.9672   10.2751 H   0  0  0  0  0  0  0  0  0  0  0  0
   20.4351  -11.8943    9.0546 H   0  0  0  0  0  0  0  0  0  0  0  0
   18.5972  -13.2197    8.8494 H   0  0  0  0  0  0  0  0  0  0  0  0
   19.0218  -13.8769   10.4662 H   0  0  0  0  0  0  0  0  0  0  0  0
   17.5678  -11.2591   10.4836 H   0  0  0  0  0  0  0  0  0  0  0  0
   16.6220  -12.6626    9.8822 H   0  0  0  0  0  0  0  0  0  0  0  0
   15.0886   -3.8368   10.3554 H   0  0  0  0  0  0  0  0  0  0  0  0
   15.9597   -3.2337    8.1144 H   0  0  0  0  0  0  0  0  0  0  0  0
  1  2  1  0
  2  3  2  0
  3  4  1  0
  3  5  1  0
  5  6  2  0
  6  7  1  0
  7  8  2  0
  8  9  1  0
  9 10  1  0
 10 11  1  0
 11 12  2  0
 11 13  1  0
 13 14  1  0
 14 15  1  0
 15 16  1  0
 16 17  1  0
 17 18  1  0
 18 19  2  0
 18 20  1  0
 20 21  1  0
 21 22  1  0
 22 23  1  0
 23 24  1  0
 24 25  1  0
 25 26  1  0
 26 27  1  0
 27 28  1  0
 28 29  1  0
  8 30  1  0
 30 31  2  0
 31  5  1  0
 17 13  1  0
 29 22  1  0
  4 32  1  0
  4 33  1  0
  6 34  1  0
  7 35  1  0
  9 36  1  0
  9 37  1  0
 10 38  1  0
 13 39  1  1
 14 40  1  0
 14 41  1  0
 15 42  1  0
 15 43  1  0
 16 44  1  0
 16 45  1  0
 20 46  1  0
 20 47  1  0
 21 48  1  0
 22 49  1  0
 23 50  1  0
 23 51  1  0
 24 52  1  0
 24 53  1  0
 25 54  1  0
 25 55  1  0
 26 56  1  0
 26 57  1  0
 27 58  1  0
 27 59  1  0
 28 60  1  0
 28 61  1  0
 29 62  1  0
 29 63  1  0
 30 64  1  0
 31 65  1  0
M  END
>  <meeko>  (4) 
{"is_sidechain": [false], "free_energy": -4.37, "intermolecular_energy": -8.3, "internal_energy": -0.325}

$$$$
13U
     RDKit          3D

 65 67  0  0  0  0  0  0  0  0999 V2000
   23.5400  -13.6120    8.9460 H   0  0  0  0  0  0  0  0  0  0  0  0
   22.8690  -12.9730    8.6580 N   0  0  0  0  0  0  0  0  0  0  0  0
   21.7010  -12.9540    9.2330 C   0  0  0  0  0  0  0  0  0  0  0  0
   20.8200  -13.9950    9.0400 N   0  0  0  0  0  0  0  0  0  0  0  0
   21.3190  -11.8110   10.0950 C   0  0  0  0  0  0  0  0  0  0  0  0
   22.3040  -11.0500   10.7230 C   0  0  0  0  0  0  0  0  0  0  0  0
   21.9440   -9.9830   11.5210 C   0  0  0  0  0  0  0  0  0  0  0  0
   20.6070   -9.6760   11.7070 C   0  0  0  0  0  0  0  0  0  0  0  0
   20.2190   -8.5140   12.5860 C   0  0  0  0  0  0  0  0  0  0  0  0
   18.8490   -8.7030   13.0680 N   0  0  0  0  0  0  0  0  0  0  0  0
   18.5520   -8.4660   14.3610 C   0  0  0  0  0  0  0  0  0  0  0  0
   19.4190   -8.0950   15.1250 O   0  0  0  0  0  0  0  0  0  0  0  0
   17.1440   -8.6650   14.8590 C   0  0  2  0  0  0  0  0  0  0  0  0
   16.5730  -10.0080   14.3410 C   0  0  0  0  0  0  0  0  0  0  0  0
   15.0460   -9.7390   14.3940 C   0  0  0  0  0  0  0  0  0  0  0  0
   14.9450   -8.2470   14.0140 C   0  0  0  0  0  0  0  0  0  0  0  0
   16.2500   -7.6340   14.3000 N   0  0  0  0  0  0  0  0  0  0  0  0
   16.5760   -6.3440   14.0860 C   0  0  0  0  0  0  0  0  0  0  0  0
   17.2790   -5.7560   14.8810 O   0  0  0  0  0  0  0  0  0  0  0  0
   16.0680   -5.6320   12.8590 C   0  0  0  0  0  0  0  0  0  0  0  0
   16.9230   -5.9620   11.7110 N   0  0  0  0  0  0  0  0  0  0  0  0
   17.7220   -4.8010   11.2980 C   0  0  0  0  0  0  0  0  0  0  0  0
   16.7960   -3.6070   11.0530 C   0  0  0  0  0  0  0  0  0  0  0  0
   16.1040   -3.7680    9.6980 C   0  0  0  0  0  0  0  0  0  0  0  0
   16.8200   -2.8730    8.6720 C   0  0  0  0  0  0  0  0  0  0  0  0
   17.5860   -3.7540    7.6840 C   0  0  0  0  0  0  0  0  0  0  0  0
   19.0770   -3.7340    8.0290 C   0  0  0  0  0  0  0  0  0  0  0  0
   19.2510   -3.9000    9.5400 C   0  0  0  0  0  0  0  0  0  0  0  0
   18.4780   -5.1330   10.0100 C   0  0  0  0  0  0  0  0  0  0  0  0
   19.6260  -10.4290   11.0870 C   0  0  0  0  0  0  0  0  0  0  0  0
   19.9750  -11.4940   10.2830 C   0  0  0  0  0  0  0  0  0  0  0  0
   19.9490  -13.9800    9.4680 H   0  0  0  0  0  0  0  0  0  0  0  0
   21.0700  -14.7430    8.4750 H   0  0  0  0  0  0  0  0  0  0  0  0
   23.3661  -11.2995   10.5827 H   0  0  0  0  0  0  0  0  0  0  0  0
   22.7203   -9.3759   12.0097 H   0  0  0  0  0  0  0  0  0  0  0  0
   20.9052   -8.4580   13.4439 H   0  0  0  0  0  0  0  0  0  0  0  0
   20.2787   -7.5804   12.0074 H   0  0  0  0  0  0  0  0  0  0  0  0
   18.1560   -9.0000   12.4570 H   0  0  0  0  0  0  0  0  0  0  0  0
   17.1866   -8.6271   15.9575 H   0  0  0  0  0  0  0  0  0  0  0  0
   16.9083  -10.2174   13.3145 H   0  0  0  0  0  0  0  0  0  0  0  0
   16.8934  -10.8847   14.9231 H   0  0  0  0  0  0  0  0  0  0  0  0
   14.5079  -10.3689   13.6704 H   0  0  0  0  0  0  0  0  0  0  0  0
   14.5982   -9.9693   15.3720 H   0  0  0  0  0  0  0  0  0  0  0  0
   14.7079   -8.1461   12.9446 H   0  0  0  0  0  0  0  0  0  0  0  0
   14.1479   -7.7519   14.5881 H   0  0  0  0  0  0  0  0  0  0  0  0
   15.0360   -5.9510   12.6511 H   0  0  0  0  0  0  0  0  0  0  0  0
   16.0889   -4.5457   13.0309 H   0  0  0  0  0  0  0  0  0  0  0  0
   17.5150   -6.7530   11.9180 H   0  0  0  0  0  0  0  0  0  0  0  0
   18.4423   -4.5507   12.0908 H   0  0  0  0  0  0  0  0  0  0  0  0
   16.0379   -3.5615   11.8488 H   0  0  0  0  0  0  0  0  0  0  0  0
   17.3861   -2.6787   11.0554 H   0  0  0  0  0  0  0  0  0  0  0  0
   16.1594   -4.8184    9.3761 H   0  0  0  0  0  0  0  0  0  0  0  0
   15.0467   -3.4755    9.7788 H   0  0  0  0  0  0  0  0  0  0  0  0
   16.0778   -2.2700    8.1284 H   0  0  0  0  0  0  0  0  0  0  0  0
   17.5217   -2.2038    9.1914 H   0  0  0  0  0  0  0  0  0  0  0  0
   17.2097   -4.7858    7.7453 H   0  0  0  0  0  0  0  0  0  0  0  0
   17.4416   -3.3699    6.6634 H   0  0  0  0  0  0  0  0  0  0  0  0
   19.5853   -4.5588    7.5082 H   0  0  0  0  0  0  0  0  0  0  0  0
   19.5149   -2.7761    7.7117 H   0  0  0  0  0  0  0  0  0  0  0  0
   20.3184   -4.0250    9.7746 H   0  0  0  0  0  0  0  0  0  0  0  0
   18.8647   -3.0073   10.0537 H   0  0  0  0  0  0  0  0  0  0  0  0
   17.7616   -5.4352    9.2319 H   0  0  0  0  0  0  0  0  0  0  0  0
   19.1820   -5.9565   10.2001 H   0  0  0  0  0  0  0  0  0  0  0  0
   18.5654  -10.1779   11.2355 H   0  0  0  0  0  0  0  0  0  0  0  0
   19.1938  -12.0921    9.7910 H   0  0  0  0  0  0  0  0  0  0  0  0
  1  2  1  0
  2  3  2  0
  3  4  1  0
  3  5  1  0
  5  6  2  0
  6  7  1  0
  7  8  2  0
  8  9  1  0
  9 10  1  0
 10 11  1  0
 11 12  2  0
 11 13  1  0
 13 14  1  0
 14 15  1  0
 15 16  1  0
 16 17  1  0
 17 18  1  0
 18 19  2  0
 18 20  1  0
 20 21  1  0
 21 22  1  0
 22 23  1  0
 23 24  1  0
 24 25  1  0
 25 26  1  0
 26 27  1  0
 27 28  1  0
 28 29  1  0
  8 30  1  0
 30 31  2  0
 31  5  1  0
 17 13  1  0
 29 22  1  0
  4 32  1  0
  4 33  1  0
  6 34  1  0
  7 35  1  0
  9 36  1  0
  9 37  1  0
 10 38  1  0
 13 39  1  1
 14 40  1  0
 14 41  1  0
 15 42  1  0
 15 43  1  0
 16 44  1  0
 16 45  1  0
 20 46  1  0
 20 47  1  0
 21 48  1  0
 22 49  1  0
 23 50  1  0
 23 51  1  0
 24 52  1  0
 24 53  1  0
 25 54  1  0
 25 55  1  0
 26 56  1  0
 26 57  1  0
 27 58  1  0
 27 59  1  0
 28 60  1  0
 28 61  1  0
 29 62  1  0
 29 63  1  0
 30 64  1  0
 31 65  1  0
M  END
>  <meeko>  (5) 
{"is_sidechain": [false], "free_energy": -4.083, "intermolecular_energy": -8.017, "internal_energy": -0.061}

$$$$
