REMARK SMILES [H]/N=C(/N)c1ccc(CNC(=O)[C@@H]2CCCN2C(=O)CNC2CCCCCCC2)cc1C
REMARK SMILES IDX 18 1 19 2 20 3 21 4 22 6 23 7 24 8 29 10 28 11 27 12 26 13
REMARK SMILES IDX 25 14 17 16 13 17 16 18 14 19 15 20 11 21 10 22 12 23 9 25
REMARK SMILES IDX 8 26 7 27 30 28 6 29 31 30 5 31 32 32 3 33 4 34 2 37 1 38
REMARK H PARENT 21 5 10 24 4 35 4 36
REMARK Flexibility Score:  112.900
ROOT
ATOM      1  C   UNL     1      -1.514   0.919  -0.893  1.00  0.00     0.237 C 
ATOM      2  O   UNL     1      -0.786  -0.080  -0.898  1.00  0.00    -0.273 OA
ENDROOT
BRANCH   1   3
ATOM      3  C   UNL     1      -3.050   0.816  -0.839  1.00  0.00     0.182 C 
BRANCH   3   4
ATOM      4  N   UNL     1      -3.468  -0.589  -1.006  1.00  0.00    -0.306 NA
ATOM      5  H   UNL     1      -2.768  -1.171  -0.539  1.00  0.00     0.123 HD
BRANCH   4   6
ATOM      6  C   UNL     1      -4.815  -0.869  -0.472  1.00  0.00     0.054 C 
BRANCH   6   7
ATOM      7  C   UNL     1      -5.012  -2.400  -0.424  1.00  0.00     0.019 C 
BRANCH   7   8
ATOM      8  C   UNL     1      -5.679  -2.917   0.857  1.00  0.00     0.002 CG0
ATOM      9  G   UNL     1      -7.155  -2.578   1.071  1.00  0.00     0.000 G0
ENDBRANCH   7   8
ENDBRANCH   6   7
BRANCH   6  10
ATOM     10  C   UNL     1      -5.858  -0.156  -1.358  1.00  0.00     0.019 C 
BRANCH  10  11
ATOM     11  C   UNL     1      -7.322  -0.564  -1.208  1.00  0.00     0.002 C 
BRANCH  11  12
ATOM     12  C   UNL     1      -7.958  -0.301   0.153  1.00  0.00     0.000 C 
BRANCH  12  13
ATOM     13  C   UNL     1      -7.436  -1.101   1.345  1.00  0.00     0.000 C 
BRANCH  13  14
ATOM     14  C   UNL     1      -7.155  -2.578   1.071  1.00  0.00     0.000 CG0
ATOM     15  G   UNL     1      -5.679  -2.917   0.857  1.00  0.00     0.000 G0
ENDBRANCH  13  14
ENDBRANCH  12  13
ENDBRANCH  11  12
ENDBRANCH  10  11
ENDBRANCH   6  10
ENDBRANCH   4   6
ENDBRANCH   3   4
ENDBRANCH   1   3
BRANCH   1  16
ATOM     16  N   UNL     1      -0.976   2.187  -0.880  1.00  0.00    -0.330 N 
ATOM     17  C   UNL     1       0.472   2.374  -0.882  1.00  0.00     0.174 C 
ATOM     18  C   UNL     1      -1.676   3.456  -0.940  1.00  0.00     0.120 C 
ATOM     19  C   UNL     1       0.671   3.888  -1.025  1.00  0.00     0.037 C 
ATOM     20  C   UNL     1      -0.659   4.388  -1.577  1.00  0.00     0.024 C 
BRANCH  17  21
ATOM     21  C   UNL     1       1.087   1.896   0.448  1.00  0.00     0.243 C 
ATOM     22  N   UNL     1       2.207   1.106   0.291  1.00  0.00    -0.350 N 
ATOM     23  O   UNL     1       0.640   2.217   1.548  1.00  0.00    -0.273 OA
ATOM     24  H   UNL     1       2.288   0.610  -0.590  1.00  0.00     0.163 HD
BRANCH  22  25
ATOM     25  C   UNL     1       2.812   0.472   1.437  1.00  0.00     0.151 C 
BRANCH  25  26
ATOM     26  C   UNL     1       4.146  -0.117   1.060  1.00  0.00    -0.028 A 
ATOM     27  C   UNL     1       5.306   0.665   1.123  1.00  0.00     0.006 A 
ATOM     28  C   UNL     1       4.234  -1.434   0.577  1.00  0.00     0.009 A 
ATOM     29  C   UNL     1       6.535   0.135   0.730  1.00  0.00     0.012 A 
ATOM     30  C   UNL     1       5.461  -1.979   0.163  1.00  0.00    -0.040 A 
ATOM     31  C   UNL     1       6.615  -1.182   0.259  1.00  0.00     0.019 A 
ATOM     32  C   UNL     1       5.496  -3.386  -0.365  1.00  0.00     0.045 C 
BRANCH  31  33
ATOM     33  C   UNL     1       7.956  -1.688  -0.134  1.00  0.00     0.123 C 
ATOM     34  N   UNL     1       8.433  -2.853   0.384  1.00  0.00    -0.384 N 
ATOM     35  H   UNL     1       9.431  -2.947   0.225  1.00  0.00     0.158 HD
ATOM     36  H   UNL     1       8.160  -3.062   1.337  1.00  0.00     0.158 HD
BRANCH  33  37
ATOM     37  N   UNL     1       8.715  -1.038  -0.957  1.00  0.00    -0.284 NA
ATOM     38  H   UNL     1       8.235  -0.200  -1.303  1.00  0.00     0.189 HD
ENDBRANCH  33  37
ENDBRANCH  31  33
ENDBRANCH  25  26
ENDBRANCH  22  25
ENDBRANCH  17  21
ENDBRANCH   1  16
TORSDOF 9
