REMARK SMILES [H]/N=C(\N)c1ccc(CNC(=O)[C@@H]2CCCN2C(=O)CNC2CCCCCCC2)cn1
REMARK SMILES IDX 18 1 19 2 20 3 21 4 22 6 23 7 24 8 29 10 28 11 27 12 26 13
REMARK SMILES IDX 25 14 17 16 13 17 16 18 14 19 15 20 11 21 10 22 12 23 9 25
REMARK SMILES IDX 8 26 7 27 30 28 6 29 31 30 5 31 3 32 4 33 2 36 1 37
REMARK H PARENT 21 5 10 24 4 34 4 35
REMARK Flexibility Score:  112.900
ROOT
ATOM      1  C   UNL     1      -0.847   0.696  -1.598  1.00  0.00     0.237 C 
ATOM      2  O   UNL     1       0.278   0.235  -1.820  1.00  0.00    -0.273 OA
ENDROOT
BRANCH   1   3
ATOM      3  C   UNL     1      -2.114  -0.100  -1.944  1.00  0.00     0.182 C 
BRANCH   3   4
ATOM      4  N   UNL     1      -2.723  -0.598  -0.702  1.00  0.00    -0.306 NA
ATOM      5  H   UNL     1      -2.818   0.158  -0.027  1.00  0.00     0.123 HD
BRANCH   4   6
ATOM      6  C   UNL     1      -4.013  -1.275  -0.906  1.00  0.00     0.054 C 
BRANCH   6   7
ATOM      7  C   UNL     1      -4.268  -2.187   0.312  1.00  0.00     0.019 C 
BRANCH   7   8
ATOM      8  C   UNL     1      -4.617  -1.505   1.636  1.00  0.00     0.002 CG0
ATOM      9  G   UNL     1      -6.120  -1.366   1.912  1.00  0.00     0.000 G0
ENDBRANCH   7   8
ENDBRANCH   6   7
BRANCH   6  10
ATOM     10  C   UNL     1      -5.126  -0.255  -1.214  1.00  0.00     0.019 C 
BRANCH  10  11
ATOM     11  C   UNL     1      -6.543  -0.827  -1.148  1.00  0.00     0.002 C 
BRANCH  11  12
ATOM     12  C   UNL     1      -7.401  -0.235  -0.031  1.00  0.00     0.000 C 
BRANCH  12  13
ATOM     13  C   UNL     1      -6.761  -0.100   1.351  1.00  0.00     0.000 C 
BRANCH  13  14
ATOM     14  C   UNL     1      -6.120  -1.366   1.912  1.00  0.00     0.000 CG0
ATOM     15  G   UNL     1      -4.617  -1.505   1.636  1.00  0.00     0.000 G0
ENDBRANCH  13  14
ENDBRANCH  12  13
ENDBRANCH  11  12
ENDBRANCH  10  11
ENDBRANCH   6  10
ENDBRANCH   4   6
ENDBRANCH   3   4
ENDBRANCH   1   3
BRANCH   1  16
ATOM     16  N   UNL     1      -1.011   1.924  -0.983  1.00  0.00    -0.330 N 
ATOM     17  C   UNL     1       0.148   2.726  -0.559  1.00  0.00     0.174 C 
ATOM     18  C   UNL     1      -2.235   2.707  -0.920  1.00  0.00     0.120 C 
ATOM     19  C   UNL     1      -0.442   4.103  -0.222  1.00  0.00     0.037 C 
ATOM     20  C   UNL     1      -1.750   4.143  -0.999  1.00  0.00     0.024 C 
BRANCH  17  21
ATOM     21  C   UNL     1       0.840   2.084   0.665  1.00  0.00     0.243 C 
ATOM     22  N   UNL     1       1.698   1.055   0.337  1.00  0.00    -0.350 N 
ATOM     23  O   UNL     1       0.622   2.423   1.825  1.00  0.00    -0.273 OA
ATOM     24  H   UNL     1       1.538   0.632  -0.580  1.00  0.00     0.163 HD
BRANCH  22  25
ATOM     25  C   UNL     1       2.260   0.205   1.356  1.00  0.00     0.153 C 
BRANCH  25  26
ATOM     26  C   UNL     1       3.566  -0.379   0.907  1.00  0.00    -0.010 A 
ATOM     27  C   UNL     1       4.756   0.350   1.023  1.00  0.00     0.009 A 
ATOM     28  C   UNL     1       3.639  -1.648   0.338  1.00  0.00     0.117 A 
ATOM     29  C   UNL     1       5.956  -0.213   0.601  1.00  0.00     0.032 A 
ATOM     30  N   UNL     1       4.787  -2.232  -0.080  1.00  0.00    -0.253 NA
ATOM     31  C   UNL     1       5.921  -1.492   0.065  1.00  0.00     0.104 A 
BRANCH  31  32
ATOM     32  C   UNL     1       7.182  -2.180  -0.372  1.00  0.00     0.141 C 
ATOM     33  N   UNL     1       7.088  -3.408  -0.972  1.00  0.00    -0.382 N 
ATOM     34  H   UNL     1       7.781  -4.082  -0.675  1.00  0.00     0.158 HD
ATOM     35  H   UNL     1       6.140  -3.785  -0.909  1.00  0.00     0.158 HD
BRANCH  32  36
ATOM     36  N   UNL     1       8.344  -1.645  -0.166  1.00  0.00    -0.283 NA
ATOM     37  H   UNL     1       9.053  -2.265  -0.565  1.00  0.00     0.189 HD
ENDBRANCH  32  36
ENDBRANCH  31  32
ENDBRANCH  25  26
ENDBRANCH  22  25
ENDBRANCH  17  21
ENDBRANCH   1  16
TORSDOF 9
